LAMMPS (3 Mar 2020)
# Input file for uniaxial compressive loading of single crystal aluminum
# Mark Tschopp, November 2010

# ------------------------ INITIALIZATION ----------------------------
units 		metal
dimension	3
boundary	p	p	p
atom_style	atomic
variable latparam equal 6.629

# ----------------------- ATOM DEFINITION ----------------------------
lattice		fcc 6.629
Lattice spacing in x,y,z = 6.629 6.629 6.629
region		whole block 0 10 0 10 0 10
create_box	1 whole
Created orthogonal box = (0 0 0) to (66.29 66.29 66.29)

region		upper block INF INF INF INF INF INF units box
lattice 	fcc 6.629 orient x 1 0 0 orient y 0 1 0 orient z 0 0 1
Lattice spacing in x,y,z = 6.629 6.629 6.629
create_atoms	1 region upper
Created 4000 atoms

# ------------------------ FORCE FIELDS ------------------------------
pair_style	eam/alloy
pair_coeff	* * Fe-Ni.eam.alloy Ni

# ------------------------- SETTINGS ---------------------------------
compute csym all centro/atom fcc
compute peratom all pe/atom

######################################
# EQUILIBRATION
reset_timestep	0
timestep 0.001
velocity all create 300 12345 mom yes rot no
fix 1 all npt temp 300 300 1 iso 0 0 1 drag 1

# Set thermo output
thermo 1000
thermo_style custom step lx ly lz press pxx pyy pzz pe temp

# Run for at least 10 picosecond (assuming 1 fs timestep)
run 20000
  update every 1 steps, delay 10 steps, check yes
Step Lx Ly Lz Press Pxx Pyy Pzz PotEng Temp
0        66.29        66.29        66.29   -13327.657   -13338.861    -13318.87   -13325.239   -231.48792          300
Averages over the last 11 of 21 rows, steps 10000 to 20000:
Lx Ly Lz Press Pxx Pyy Pzz PotEng Temp
36.0781 36.0781 36.0781 367.431 586.99 425.498 89.806 -17014.1 531.297
Loop time of 150.219 on 1 procs for 20000 steps with 4000 atoms

unfix 1

# Store final cell length for strain calculations
variable tmp equal "lx"
variable L0 equal 35.9408606812119
Initial Length, L0: 35.9408606812119

######################################
# DEFORMATION
reset_timestep	0

fix		1 all npt temp 300 300 1 y 0 0 1 z 0 0 1 drag 1
variable srate equal 1.0e10
variable srate1 equal "-v_srate / 1.0e12"
fix		2 all deform 1 x erate -0.01 units box remap x

# Output strain and stress info to file
# for units metal, pressure is in [bars] = 100 [kPa] = 1/10000 [GPa]
# p2, p3, p4 are in GPa
variable strain equal "(lx - v_L0)/v_L0"
variable p1 equal "v_strain"
variable p2 equal "-pxx/10000"
variable p3 equal "-pyy/10000"
variable p4 equal "-pzz/10000"

# Use cfg for AtomEye
dump 		1 all cfg 250 dump.Fe-Ni_*.cfg mass type xs ys zs c_csym c_peratom fx fy fz

# Display thermo
thermo 	1000
thermo_style	custom step v_strain temp v_p2 v_p3 v_p4 ke pe press

run		20000
Step v_strain Temp v_p2 v_p3 v_p4 KinEng PotEng Press
0            0    372.11262 -0.063401194 -0.061604617  -0.20212289    192.34923   -17128.363     1090.429
Averages over the last 11 of 21 rows, steps 10000 to 20000:
v_strain Temp v_p2 v_p3 v_p4 KinEng PotEng Press
-0.15 320.733 -2.37816 0.00398311 0.000670794 165.79 -17140.8 7911.67
Loop time of 179.187 on 1 procs for 20000 steps with 4000 atoms

######################################
# SIMULATION DONE
print "All done"
All done
